<?xml version='1.0' encoding='utf-8'?>
<routes><trip id="EV_0" depart="0.00" from="24299893#0" to="-1278375677" type="EV" />
    <trip id="EV_1" depart="1.00" from="-389303151" to="-4475799#0" type="EV" />
<trip id="PET_0" depart="0.00" from="24299893#0" to="-1278375677" type="petrol" />
    <trip id="PET_1" depart="1.00" from="-389303151" to="-4475799#0" type="petrol" />
    <trip id="PET_2" depart="2.00" from="421693884" to="28662102#1" type="petrol" />
    <trip id="PET_3" depart="3.00" from="779826904" to="-21766336#0" type="petrol" />
    <trip id="PET_4" depart="4.00" from="-80249131" to="-1304747142#4" type="petrol" />
    <trip id="PET_5" depart="5.00" from="-30831885#1" to="144799286#1" type="petrol" />
    <trip id="PET_6" depart="6.00" from="-1230731357" to="-381387671#7" type="petrol" />
    <trip id="PET_7" depart="7.00" from="24324817#1" to="199094906" type="petrol" />
    <trip id="PET_8" depart="8.00" from="-30831919" to="23340719#0" type="petrol" />
    <trip id="PET_9" depart="9.00" from="5203878#1" to="-10903503#0" type="petrol" />
    <trip id="PET_10" depart="10.00" from="4995516#2" to="30832111" type="petrol" />
    <trip id="PET_11" depart="11.00" from="-49749004#4" to="-28265508#0" type="petrol" />
    <trip id="PET_12" depart="12.00" from="82719367#1" to="-7713483#1" type="petrol" />
    <trip id="PET_13" depart="13.00" from="-203009092" to="-229244583#2" type="petrol" />
    <trip id="PET_14" depart="14.00" from="61430158#0" to="23844352#3" type="petrol" />
    <trip id="PET_15" depart="15.00" from="504467345#2" to="32533578#3" type="petrol" />
    <trip id="PET_16" depart="16.00" from="1395335077#0" to="85140702#1" type="petrol" />
    <trip id="PET_17" depart="17.00" from="-61430376#1" to="203907778" type="petrol" />
</routes>