<?xml version="1.0" encoding="UTF-8"?>

<!-- generated on 2025-08-04 16:44:40.057514 by randomTrips.py UNKNOWN
<configuration>
    <net-file value="data/map/glasgow_clean.net.xml"/>
    <output-trip-file value="data/routes/ev.trips.xml"/>
    <prefix value="EV_"/>
    <fringe-factor value="10"/>
    <end value="1800.0"/>
    <period value="1800.0"/>
</configuration>
-->

<routes xmlns:xsi="http://www.w3.org/2001/XMLSchema-instance" xsi:noNamespaceSchemaLocation="http://sumo.dlr.de/xsd/routes_file.xsd">
    <trip id="EV_0" depart="0.00" from="24299893#0" to="-1278375677"/>
</routes>
