<?xml version="1.0" encoding="UTF-8"?>

<!-- generated on 2025-08-04 16:43:46.813209 by randomTrips.py UNKNOWN
<configuration>
    <net-file value="data/map/glasgow_clean.net.xml"/>
    <output-trip-file value="data/routes/pet.trips.xml"/>
    <prefix value="PET_"/>
    <fringe-factor value="10"/>
    <begin value="1800.0"/>
    <end value="8200.0"/>
    <period value="8200.0"/>
</configuration>
-->

<routes xmlns:xsi="http://www.w3.org/2001/XMLSchema-instance" xsi:noNamespaceSchemaLocation="http://sumo.dlr.de/xsd/routes_file.xsd">
    <trip id="PET_0" depart="1800.00" from="24299893#0" to="-1278375677"/>
</routes>
