<?xml version='1.0' encoding='utf-8'?>
<routes xmlns:xsi="http://www.w3.org/2001/XMLSchema-instance" xsi:noNamespaceSchemaLocation="http://sumo.dlr.de/xsd/routes_file.xsd">
    <vehicle id="EV_0" type="EV" depart="0.00">
        <route edges="24299893#0 24299893#1 24299893#2 24299893#3 24299893#4 24299893#5 120316916 -263438817#9 -263438817#8 -263438817#7 -263438817#6 -263438817#5 -263438817#4 -263438817#3 -263438817#2 -263438817#1 -263438817#0 -263438816 -4750216#3 -4750216#2 -4750216#1 -4750216#0 4750214#0 4750214#1 4750214#2 4750214#3 4750214#4 4750214#5 4750214#6 232836167#0 232836167#1 24300160#0 24300160#1 -4589100#3 -4589100#2 -4589100#1 -4589100#0 -4856735#4 -4856735#3 -4856735#2 -4856735#1 -4856735#0 -4567181 -431740498#11 -431740498#10 -431740498#9 -431740498#8 -431740498#7 -431740498#6 -431740498#5 -431740498#4 -431740498#3 -431740498#2 -431740498#1 -431740498#0 -4565330 4642285#0 4642285#1 4642285#2 4642285#3 4642285#4 33175470#0 33175470#1 33175470#2 33175470#3 33175470#4 47172045#0 47172045#1 47172044 4642284 33175469#0 33175469#1 33175469#2 45049552#0 45049552#1 45049552#2 45049552#3 368520678#0 368520678#1 164090947#0 164090947#1 164090947#2 4803254 4803257#0 4803257#1 4803260 15816853 39891126 4869276#1 4869276#2 41276784 4256320#0 4256320#1 4256318#0 4256318#1 4301076 4301075 4423343#0 4423343#1 4423343#2 26529841 90685422 1156202048 242646548 5730321 4281152 476938862 60929 1275406773 1275406774 1227437241 1227437239 49857980#0 49857980#1 147157031#0 147157031#1 147157031#2 2096 45075233#0 45075233#1 45075233#2 45075233#3 140570266#0 140570266#1 140570266#2 140570266#3 140570266#4 1330306719 1330306722#0 1330306722#1 1330306722#2 1330306722#3 1330306722#4 550250858 579672160 579672157#0 579672157#1 140570268#0 140570268#1 140570268#2 4281194 1362333360#0 1362333360#1 1362333360#2 171460637 598333086 144595493#0 144595493#1 203516659 895142386#0 895142386#1 895142386#2 895142386#3 203516664#0 203516664#1 203516664#2 144595499#0 144595499#1 144595499#2 144595499#3 688524360#0 688524360#1 688524360#2 688524360#3 688524360#4 4281195 1123876514#0 1123876514#1 1123876514#2 1123876515 2094#0 2094#1 2094#2 2094#3 2094#4 2094#5 2094#6 25420427#0 25420427#1 25420427#2 25420427#3 917104275#0 917104275#1 917104275#2 917104275#3 1308657803#0 1308657803#1 -1278375677" />
    </vehicle>
    <vehicle id="PET_0" type="petrol" depart="0.00">
        <route edges="24299893#0 24299893#1 24299893#2 24299893#3 24299893#4 24299893#5 120316916 -263438817#9 -263438817#8 -263438817#7 -263438817#6 -263438817#5 -263438817#4 -263438817#3 -263438817#2 -263438817#1 -263438817#0 -263438816 -4750216#3 -4750216#2 -4750216#1 -4750216#0 4750214#0 4750214#1 4750214#2 4750214#3 4750214#4 4750214#5 4750214#6 232836167#0 232836167#1 24300160#0 24300160#1 -4589100#3 -4589100#2 -4589100#1 -4589100#0 -4856735#4 -4856735#3 -4856735#2 -4856735#1 -4856735#0 -4567181 -431740498#11 -431740498#10 -431740498#9 -431740498#8 -431740498#7 -431740498#6 -431740498#5 -431740498#4 -431740498#3 -431740498#2 -431740498#1 -431740498#0 -4565330 4642285#0 4642285#1 4642285#2 4642285#3 4642285#4 33175470#0 33175470#1 33175470#2 33175470#3 33175470#4 47172045#0 47172045#1 47172044 4642284 33175469#0 33175469#1 33175469#2 45049552#0 45049552#1 45049552#2 45049552#3 368520678#0 368520678#1 164090947#0 164090947#1 164090947#2 4803254 4803257#0 4803257#1 4803260 15816853 39891126 4869276#1 4869276#2 41276784 4256320#0 4256320#1 4256318#0 4256318#1 4301076 4301075 4423343#0 4423343#1 4423343#2 26529841 90685422 1156202048 242646548 5730321 4281152 476938862 60929 1275406773 1275406774 1227437241 1227437239 49857980#0 49857980#1 147157031#0 147157031#1 147157031#2 2096 45075233#0 45075233#1 45075233#2 45075233#3 140570266#0 140570266#1 140570266#2 140570266#3 140570266#4 1330306719 1330306722#0 1330306722#1 1330306722#2 1330306722#3 1330306722#4 550250858 579672160 579672157#0 579672157#1 140570268#0 140570268#1 140570268#2 4281194 1362333360#0 1362333360#1 1362333360#2 171460637 598333086 144595493#0 144595493#1 203516659 895142386#0 895142386#1 895142386#2 895142386#3 203516664#0 203516664#1 203516664#2 144595499#0 144595499#1 144595499#2 144595499#3 688524360#0 688524360#1 688524360#2 688524360#3 688524360#4 4281195 1123876514#0 1123876514#1 1123876514#2 1123876515 2094#0 2094#1 2094#2 2094#3 2094#4 2094#5 2094#6 25420427#0 25420427#1 25420427#2 25420427#3 917104275#0 917104275#1 917104275#2 917104275#3 1308657803#0 1308657803#1 -1278375677" />
    </vehicle>
    <vehicle id="EV_1" type="EV" depart="1.00">
        <route edges="-389303151 -30832427#0 151120275#1 30832409#4 -1278163499 -30832286#0 30832279#0 30832279#1 209281887 30832447#0 30832447#1 30832447#2 30832447#3 209281889#0 209281889#1 -209281890 -29076486#7 -29076486#6 -29076486#5 -29076486#4 -29076486#3 -29076486#2 -29076486#1 -29076486#0 -209245894#4 -209245894#3 -209245894#2 -209245894#1 -209245894#0 -30832517#3 -30832517#2 -30832517#1 -30832517#0 45409539 45071419 250475788#0 250475788#1 250475788#2 250475788#3 250475788#4 250475788#5 250475788#6 45409540#0 45409540#1 45409540#2 45409540#3 45409540#4 45409540#5 45409540#6 145348390#0 145348390#1 145348390#2 145348390#3 145348390#4 145348390#5 145348390#6 209281127 31255612 118794905 31255613#0 31255613#1 31255614 145348391#0 145348391#1 145348391#2 145348391#3 145348391#4 145348391#5 145348391#6 145348391#7 145348391#8 250475811#0 250475811#1 250475811#2 250475811#3 250475811#4 250478232#0 250478232#1 8073061 1221943386 417625399#0 417625399#1 417625399#2 22752434 45494613#0 45494613#1 45494613#2 -895933691 -895933692 -55668652#3 -55668652#2 -55668652#1 -55668652#0 -1220315998 -478849147 -478849145#1 -478849145#0 -55668651 -8073060 156536756 202753994#0 202753994#1 202753994#2 202753994#3 202753994#4 202753994#5 4475800#0 4475800#1 4475800#2 4475800#3 -4475799#8 -4475799#7 -4475799#6 -4475799#5 -4475799#4 -4475799#3 -4475799#2 -4475799#1 -4475799#0" />
    </vehicle>
    <vehicle id="PET_1" type="petrol" depart="1.00">
        <route edges="-389303151 -30832427#0 151120275#1 30832409#4 -1278163499 -30832286#0 30832279#0 30832279#1 209281887 30832447#0 30832447#1 30832447#2 30832447#3 209281889#0 209281889#1 -209281890 -29076486#7 -29076486#6 -29076486#5 -29076486#4 -29076486#3 -29076486#2 -29076486#1 -29076486#0 -209245894#4 -209245894#3 -209245894#2 -209245894#1 -209245894#0 -30832517#3 -30832517#2 -30832517#1 -30832517#0 45409539 45071419 250475788#0 250475788#1 250475788#2 250475788#3 250475788#4 250475788#5 250475788#6 45409540#0 45409540#1 45409540#2 45409540#3 45409540#4 45409540#5 45409540#6 145348390#0 145348390#1 145348390#2 145348390#3 145348390#4 145348390#5 145348390#6 209281127 31255612 118794905 31255613#0 31255613#1 31255614 145348391#0 145348391#1 145348391#2 145348391#3 145348391#4 145348391#5 145348391#6 145348391#7 145348391#8 250475811#0 250475811#1 250475811#2 250475811#3 250475811#4 250478232#0 250478232#1 8073061 1221943386 417625399#0 417625399#1 417625399#2 22752434 45494613#0 45494613#1 45494613#2 -895933691 -895933692 -55668652#3 -55668652#2 -55668652#1 -55668652#0 -1220315998 -478849147 -478849145#1 -478849145#0 -55668651 -8073060 156536756 202753994#0 202753994#1 202753994#2 202753994#3 202753994#4 202753994#5 4475800#0 4475800#1 4475800#2 4475800#3 -4475799#8 -4475799#7 -4475799#6 -4475799#5 -4475799#4 -4475799#3 -4475799#2 -4475799#1 -4475799#0" />
    </vehicle>
    <vehicle id="EV_2" type="EV" depart="2.00">
        <route edges="421693884 187917795 127394730 595650583 4301078 4256316 741970609 42805778 42805779#0 42805779#1 42805779#2 1333587184 -4287345#11 -4287345#10 -4287345#9 -4287345#8 -4287345#7 -4287345#6 -4287345#5 -4287345#4 -4287345#3 -16282110#10 -16282110#9 -16282110#8 -16282110#7 -16282110#6 -16282110#5 -16282110#4 -16282110#3 -16282110#2 -16282110#1 -16282110#0 -969769502 -139718604#6 -139718604#5 28662102#0 28662102#1" />
    </vehicle>
    <vehicle id="PET_2" type="petrol" depart="2.00">
        <route edges="421693884 187917795 127394730 595650583 4301078 4256316 741970609 42805778 42805779#0 42805779#1 42805779#2 1333587184 -4287345#11 -4287345#10 -4287345#9 -4287345#8 -4287345#7 -4287345#6 -4287345#5 -4287345#4 -4287345#3 -16282110#10 -16282110#9 -16282110#8 -16282110#7 -16282110#6 -16282110#5 -16282110#4 -16282110#3 -16282110#2 -16282110#1 -16282110#0 -969769502 -139718604#6 -139718604#5 28662102#0 28662102#1" />
    </vehicle>
    <vehicle id="EV_3" type="EV" depart="3.00">
        <route edges="779826904 771757085 771757086#1 771757087#0 779826905 -38788465#2 -38788465#1 -38788465#0 422603829#2 422603829#3 -38788462 422603826 15090996#5 15090996#6 15090996#7 15090996#8 15090996#0 15090996#1 15091016 444242831 15091017#0 15091017#1 15090998#2 15090998#0 15090999#0 15090999#1 15090999#2 15090999#3 145352141#0 145352141#1 209287979 80584729 80584636#0 80584636#1 80584636#2 80584636#3 80584636#4 44975285#0 44975285#1 44975285#2 6439054#20 6439054#21 80584609#3 80584609#4 80584730 24731127 164088507#0 164088507#1 164088507#2 164088507#3 897248007#0 897248007#1 897248007#2 897248007#3 897248007#4 897248007#5 93212331#0 93212331#1 93212331#2 93212331#3 93212331#4 93212331#5 93212331#6 93212331#7 93212331#8 93212331#9 93212331#10 93212331#11 93212331#12 93212331#13 179689712#0 179689712#1 179689712#2 179689712#3 179689712#4 179689712#5 179689712#6 179689712#7 1214613821#0 1214613821#1 1214613821#2 1214613821#3 1214613821#4 1214613821#5 1214613821#6 1214613821#7 1214613821#8 1214613821#9 1214613821#10 1214613821#11 1214613821#12 1214613821#13 1214613821#14 -120316914#7 -120316914#6 -120316914#5 -120316914#4 -120316914#3 -120316914#2 -120316914#1 -120316914#0 -1102403763 -1102403761#1 -1102403761#0 -897250352#22 -897250352#21 -897250352#20 -897250352#19 -897250352#18 -897250352#17 -897250352#16 -897250352#15 -897250352#14 -897250352#13 -897250352#12 -897250352#11 -897250352#10 -897250352#9 -897250352#8 -897250352#7 -897250352#6 -897250352#5 -897250352#4 -897250352#3 -897250352#2 -897250352#1 -897250352#0 -158371794#27 -158371794#26 -158371794#25 -158371794#24 -158371794#23 -158371794#22 -158371794#21 -158371794#20 -158371794#19 -158371794#18 -158371794#17 -158371794#16 -158371794#15 -158371794#14 -158371794#13 4589102#0 4589102#1 4589102#2 734401500#0 734401500#1 734401500#2 734401500#3 734401500#4 1395335071#0 151427349#0 151427349#1 151427349#2 1395335076#5 -28776340#15 -28776340#14 -28776340#13 -28776340#12 -28776340#11 -28776340#10 -28776340#9 -28776340#8 -28776340#7 -28776340#6 -28776340#5 -28776340#4 -28776340#3 -28776340#2 -28776340#1 -28776340#0 -106787716#6 -106787716#5 -106787716#4 -106787716#3 -106787716#2 -106787716#1 -106787716#0 -106787719#1 -106787719#0 -4515806#3 -4515806#2 -4515806#1 -4515806#0 -202753992#14 -202753992#13 -202753992#12 -202753992#11 -202753992#10 -202753992#9 4713118#0 4713118#1 4713118#2 4713118#3 4713118#4 192333654#0 192333654#1 -21766336#1 -21766336#0" />
    </vehicle>
    <vehicle id="PET_3" type="petrol" depart="3.00">
        <route edges="779826904 771757085 771757086#1 771757087#0 779826905 -38788465#2 -38788465#1 -38788465#0 422603829#2 422603829#3 -38788462 422603826 15090996#5 15090996#6 15090996#7 15090996#8 15090996#0 15090996#1 15091016 444242831 15091017#0 15091017#1 15090998#2 15090998#0 15090999#0 15090999#1 15090999#2 15090999#3 145352141#0 145352141#1 209287979 80584729 80584636#0 80584636#1 80584636#2 80584636#3 80584636#4 44975285#0 44975285#1 44975285#2 6439054#20 6439054#21 80584609#3 80584609#4 80584730 24731127 164088507#0 164088507#1 164088507#2 164088507#3 897248007#0 897248007#1 897248007#2 897248007#3 897248007#4 897248007#5 93212331#0 93212331#1 93212331#2 93212331#3 93212331#4 93212331#5 93212331#6 93212331#7 93212331#8 93212331#9 93212331#10 93212331#11 93212331#12 93212331#13 179689712#0 179689712#1 179689712#2 179689712#3 179689712#4 179689712#5 179689712#6 179689712#7 1214613821#0 1214613821#1 1214613821#2 1214613821#3 1214613821#4 1214613821#5 1214613821#6 1214613821#7 1214613821#8 1214613821#9 1214613821#10 1214613821#11 1214613821#12 1214613821#13 1214613821#14 -120316914#7 -120316914#6 -120316914#5 -120316914#4 -120316914#3 -120316914#2 -120316914#1 -120316914#0 -1102403763 -1102403761#1 -1102403761#0 -897250352#22 -897250352#21 -897250352#20 -897250352#19 -897250352#18 -897250352#17 -897250352#16 -897250352#15 -897250352#14 -897250352#13 -897250352#12 -897250352#11 -897250352#10 -897250352#9 -897250352#8 -897250352#7 -897250352#6 -897250352#5 -897250352#4 -897250352#3 -897250352#2 -897250352#1 -897250352#0 -158371794#27 -158371794#26 -158371794#25 -158371794#24 -158371794#23 -158371794#22 -158371794#21 -158371794#20 -158371794#19 -158371794#18 -158371794#17 -158371794#16 -158371794#15 -158371794#14 -158371794#13 4589102#0 4589102#1 4589102#2 734401500#0 734401500#1 734401500#2 734401500#3 734401500#4 1395335071#0 151427349#0 151427349#1 151427349#2 1395335076#5 -28776340#15 -28776340#14 -28776340#13 -28776340#12 -28776340#11 -28776340#10 -28776340#9 -28776340#8 -28776340#7 -28776340#6 -28776340#5 -28776340#4 -28776340#3 -28776340#2 -28776340#1 -28776340#0 -106787716#6 -106787716#5 -106787716#4 -106787716#3 -106787716#2 -106787716#1 -106787716#0 -106787719#1 -106787719#0 -4515806#3 -4515806#2 -4515806#1 -4515806#0 -202753992#14 -202753992#13 -202753992#12 -202753992#11 -202753992#10 -202753992#9 4713118#0 4713118#1 4713118#2 4713118#3 4713118#4 192333654#0 192333654#1 -21766336#1 -21766336#0" />
    </vehicle>
    <vehicle id="EV_4" type="EV" depart="4.00">
        <route edges="-80249131 -25939698#1 -25939698#0 -25939667#0 -209286646#4 4570688#0 4570688#1 4570688#2 4570688#3 4570688#4 4570688#5 4570688#6 4570688#7 4570688#8 4570688#9 4570688#10 4570688#11 4570688#12 4570688#13 4570688#14 4570688#15 4570688#16 4570688#17 4570688#18 4570688#19 4570688#20 24730984#0 24730984#1 24730984#2 24730984#3 24730984#4 24730984#5 24730984#6 24730984#7 24730984#8 24730984#9 24730984#10 24730984#11 24730984#12 24730984#13 24730984#14 24730984#15 179689711#9 179689711#10 179689711#11 179689711#12 897248005#0 897248005#1 897248005#2 897248005#3 897248005#4 897248005#5 24731122#2 24731122#3 164088508#0 164088508#1 80584609#0 80584609#1 80584629#0 80584629#1 80584629#2 -44975285#3 -44975285#2 -44975285#1 -44975285#0 145352139#0 145352139#1 145352139#2 511172209#0 511172209#1 511172212#0 511172212#1 511172212#2 80584516 1292135524#0 1292135524#1 1292135524#2 80584619 209287978 -15090999#3 -15090999#2 -15090999#1 -15090999#0 15090998#1 -15091017#1 -15091017#0 -444242831 15090997 15090996#3 422603823 38788462 422603829#4 422603829#0 422603829#1 38788465#0 38788465#1 38788465#2 771757088 771757087#2 771757087#3 779826904 38788468#0 38788468#1 38788468#2 38788468#3 38788468#4 38788468#5 38788468#6 38788468#7 128896284 128896281 754356033 38788471#2 38788471#3 38788471#4 38788471#5 38788471#6 754356026 38358086#0 38358086#1 38358086#2 38358086#3 38358086#4 38358086#5 38358086#6 38358086#7 38358086#8 38358086#9 38358086#10 225022124 -38358085#1 -38358085#0 268183234 57798751#0 57798751#1 57798751#2 57798743#1 57798743#2 57798743#3 -1005597588#4 -1005597588#3 -1005597588#2 -1005597588#1 -1005597588#0 -1183961315#4 -1183961315#3 -1183961315#2 -1183961315#1 -1183961315#0 1118125979#0 1118125979#1 1118125979#2 1118125979#3 842129715#2 1004009969#0 1004009969#1 -521274637#11 1304747142#0 1304747142#1 1304747142#2 1304747142#3 1304747142#4 1304747142#5 -1304747142#5 -1304747142#4" />
    </vehicle>
    <vehicle id="PET_4" type="petrol" depart="4.00">
        <route edges="-80249131 -25939698#1 -25939698#0 -25939667#0 -209286646#4 4570688#0 4570688#1 4570688#2 4570688#3 4570688#4 4570688#5 4570688#6 4570688#7 4570688#8 4570688#9 4570688#10 4570688#11 4570688#12 4570688#13 4570688#14 4570688#15 4570688#16 4570688#17 4570688#18 4570688#19 4570688#20 24730984#0 24730984#1 24730984#2 24730984#3 24730984#4 24730984#5 24730984#6 24730984#7 24730984#8 24730984#9 24730984#10 24730984#11 24730984#12 24730984#13 24730984#14 24730984#15 179689711#9 179689711#10 179689711#11 179689711#12 897248005#0 897248005#1 897248005#2 897248005#3 897248005#4 897248005#5 24731122#2 24731122#3 164088508#0 164088508#1 80584609#0 80584609#1 80584629#0 80584629#1 80584629#2 -44975285#3 -44975285#2 -44975285#1 -44975285#0 145352139#0 145352139#1 145352139#2 511172209#0 511172209#1 511172212#0 511172212#1 511172212#2 80584516 1292135524#0 1292135524#1 1292135524#2 80584619 209287978 -15090999#3 -15090999#2 -15090999#1 -15090999#0 15090998#1 -15091017#1 -15091017#0 -444242831 15090997 15090996#3 422603823 38788462 422603829#4 422603829#0 422603829#1 38788465#0 38788465#1 38788465#2 771757088 771757087#2 771757087#3 779826904 38788468#0 38788468#1 38788468#2 38788468#3 38788468#4 38788468#5 38788468#6 38788468#7 128896284 128896281 754356033 38788471#2 38788471#3 38788471#4 38788471#5 38788471#6 754356026 38358086#0 38358086#1 38358086#2 38358086#3 38358086#4 38358086#5 38358086#6 38358086#7 38358086#8 38358086#9 38358086#10 225022124 -38358085#1 -38358085#0 268183234 57798751#0 57798751#1 57798751#2 57798743#1 57798743#2 57798743#3 -1005597588#4 -1005597588#3 -1005597588#2 -1005597588#1 -1005597588#0 -1183961315#4 -1183961315#3 -1183961315#2 -1183961315#1 -1183961315#0 1118125979#0 1118125979#1 1118125979#2 1118125979#3 842129715#2 1004009969#0 1004009969#1 -521274637#11 1304747142#0 1304747142#1 1304747142#2 1304747142#3 1304747142#4 1304747142#5 -1304747142#5 -1304747142#4" />
    </vehicle>
    <vehicle id="EV_5" type="EV" depart="5.00">
        <route edges="-30831885#1 -30831885#0 -30831883#0 100963037#2 -24232687#2 -24232687#1 -24232687#0 -30726818 -30832286#3 -30832286#2 -30832286#1 -30832286#0 30832279#0 30832279#1 209281887 30832447#0 30832447#1 30832447#2 30832447#3 209281889#0 209281889#1 -209281890 -29076486#7 -29076486#6 -29076486#5 -29076486#4 -29076486#3 -29076486#2 -29076486#1 -29076486#0 -209245894#4 -209245894#3 -209245894#2 -209245894#1 -209245894#0 -30832517#3 -30832517#2 -30832517#1 -30832517#0 45409539 45071419 250475788#0 250475788#1 250475788#2 250475788#3 250475788#4 250475788#5 250475788#6 45409540#0 45409540#1 45409540#2 45409540#3 45409540#4 45409540#5 45409540#6 145348390#0 145348390#1 145348390#2 145348390#3 145348390#4 145348390#5 145348390#6 209281127 31255612 118794905 31255613#0 31255613#1 31255614 145348391#0 145348391#1 145348391#2 145348391#3 145348391#4 145348391#5 145348391#6 145348391#7 145348391#8 250475811#0 250475811#1 250475811#2 250475811#3 250475811#4 250478232#0 250478232#1 202753587 170560360 417577245 22731341#0 22731341#1 55668654 384218092#0 384218092#1 1323213578 1323213577 55668655#0 55668655#1 55668655#2 -706496749#3 -706496749#2 -706496749#1 -706496749#0 239811653#0 239811653#1 1323213576 1103822693#0 1103822693#1 -156536760#5 -156536760#4 -156536760#3 -156536760#2 -156536760#1 -156536760#0 -1097150695#5 -1097150695#4 -1097150695#3 -1097150695#2 -1097150695#1 -1097150695#0 -4475203#1 -4475203#0 -685023881#4 -685023881#3 -685023881#2 -685023881#1 -685023881#0 -4494913#12 -4494913#11 -4494913#10 -4494913#9 -4494913#8 -4494913#7 -4494913#6 -4494913#5 -4494913#4 -4494913#3 -4494913#2 -4494913#1 -4494913#0 595233510 4741290 4741293 -83607382#8 -83607382#7 -83607382#6 -83607382#5 -83607382#4 -83607382#3 -83607382#2 -83607382#1 -83607382#0 -595322020#3 -595322020#2 -595322020#1 -595322020#0 -4565331 -1097150694 -4521173 -132741010#1 -132741010#0 132741009 431740498#0 431740498#1 431740498#2 14593584#0 144799286#0 144799286#1" />
    </vehicle>
    <vehicle id="PET_5" type="petrol" depart="5.00">
        <route edges="-30831885#1 -30831885#0 -30831883#0 100963037#2 -24232687#2 -24232687#1 -24232687#0 -30726818 -30832286#3 -30832286#2 -30832286#1 -30832286#0 30832279#0 30832279#1 209281887 30832447#0 30832447#1 30832447#2 30832447#3 209281889#0 209281889#1 -209281890 -29076486#7 -29076486#6 -29076486#5 -29076486#4 -29076486#3 -29076486#2 -29076486#1 -29076486#0 -209245894#4 -209245894#3 -209245894#2 -209245894#1 -209245894#0 -30832517#3 -30832517#2 -30832517#1 -30832517#0 45409539 45071419 250475788#0 250475788#1 250475788#2 250475788#3 250475788#4 250475788#5 250475788#6 45409540#0 45409540#1 45409540#2 45409540#3 45409540#4 45409540#5 45409540#6 145348390#0 145348390#1 145348390#2 145348390#3 145348390#4 145348390#5 145348390#6 209281127 31255612 118794905 31255613#0 31255613#1 31255614 145348391#0 145348391#1 145348391#2 145348391#3 145348391#4 145348391#5 145348391#6 145348391#7 145348391#8 250475811#0 250475811#1 250475811#2 250475811#3 250475811#4 250478232#0 250478232#1 202753587 170560360 417577245 22731341#0 22731341#1 55668654 384218092#0 384218092#1 1323213578 1323213577 55668655#0 55668655#1 55668655#2 -706496749#3 -706496749#2 -706496749#1 -706496749#0 239811653#0 239811653#1 1323213576 1103822693#0 1103822693#1 -156536760#5 -156536760#4 -156536760#3 -156536760#2 -156536760#1 -156536760#0 -1097150695#5 -1097150695#4 -1097150695#3 -1097150695#2 -1097150695#1 -1097150695#0 -4475203#1 -4475203#0 -685023881#4 -685023881#3 -685023881#2 -685023881#1 -685023881#0 -4494913#12 -4494913#11 -4494913#10 -4494913#9 -4494913#8 -4494913#7 -4494913#6 -4494913#5 -4494913#4 -4494913#3 -4494913#2 -4494913#1 -4494913#0 595233510 4741290 4741293 -83607382#8 -83607382#7 -83607382#6 -83607382#5 -83607382#4 -83607382#3 -83607382#2 -83607382#1 -83607382#0 -595322020#3 -595322020#2 -595322020#1 -595322020#0 -4565331 -1097150694 -4521173 -132741010#1 -132741010#0 132741009 431740498#0 431740498#1 431740498#2 14593584#0 144799286#0 144799286#1" />
    </vehicle>
    <vehicle id="EV_6" type="EV" depart="6.00">
        <route edges="-1230731357 -133550892 -974849858 -1230731367 -1230731368 -144597766#3 -144597766#2 -144597766#1 -144597766#0 -1230731369#1 -1230731369#0 -1230731370 -1230731366 -1230731365#2 -1230731365#1 -1230731365#0 -144597764#2 -144597764#1 -144597764#0 -1321593441 -199095127#4 -199095127#3 -199095127#2 -199095127#1 -199095127#0 -180579432#9 -180579432#8 -180579432#7 -180579432#6 -180579432#5 -180579432#4 -180579432#3 -180579432#2 -180579432#1 -180579432#0 1223645399 1321596833 1223645397#0 1223645397#1 1223645397#2 1223965819 1223645394#0 1223645394#1 1223645394#2 -1223645392#1 -1223645392#0 6182158#0 6182158#1 6182158#2 6182158#3 6182158#4 6182158#5 6182158#6 6182158#7 6182158#8 6182158#9 6182158#10 6182158#11 6182158#12 6182158#13 6182158#14 6182158#15 1103797413 1103797412 -209250806#10 -209250806#9 -209250806#8 -209250806#7 -209250806#6 -209250806#5 -209250806#4 -209250806#3 -209250806#2 -209250806#1 -209250806#0 -1321593449#6 -1321593449#5 -1321593449#4 -1321593449#3 -1321593449#2 -1321593449#1 -1321593449#0 -1259067844#5 -1259067844#4 -1259067844#3 -1259067844#2 -1259067844#1 -1259067844#0 -1259067845#14 -1259067845#13 -1259067845#12 -1259067845#11 -1259067845#10 -1259067845#9 -1259067845#8 -1259067845#7 -1259067845#6 -1259067845#5 -1259067845#4 -1259067845#3 -1259067845#2 -1259067845#1 -1259067845#0 -2118#3 -2118#2 -2118#1 -2118#0 -28379982#4 -28379982#3 -28379982#2 -28379982#1 -28379982#0 -1259663806#1 -1259663806#0 -4764316#6 -4764316#5 -4764316#4 -4764316#3 -4764316#2 -4764316#1 -4764316#0 -1257547930 1257547934 4745226#0 4745226#1 4764321 69067221 1211272275#0 1211272275#1 1211272275#2 1211272275#3 4764308#0 4764308#1 69067210 736368178 736368179 69067217#0 69067217#1 69067217#2 69067217#3 69067217#4 69067217#5 69067217#6 69067217#7 69067217#8 69067217#9 69067217#10 69067217#11 69067217#12 69067217#13 69067217#14 4803159 185756883 205818724#0 205818724#1 69067205 69067225 4803181 1219330340 164087240#0 164087240#1 5204138#0 5204138#1 164087237#0 164087237#1 164087237#2 972410217#0 972410217#1 -331674956#2 -331674956#1 -331674956#0 -144176778#8 -144176778#7 -144176778#6 -144176778#5 -144176778#4 -144176778#3 -144176778#2 -144176778#1 -144176778#0 -4806323#9 -4806323#8 -4806323#7 -4806323#6 -4806323#5 -4806323#4 -4806323#3 -4806323#2 -4806323#1 -4806323#0 4483407#0 4483407#1 4483407#2 4483407#3 4483407#4 4483407#5 203910670#0 203910670#1 203910670#2 203910670#3 203910670#4 203910670#5 203910670#6 5203969#0 5203969#1 41483050 385315764 41483052#0 41483052#1 5203968#2 5203968#3 5203968#4 5203970#0 5203970#1 5203970#2 5203972 385344417 4995733 385344418 385315763 379647417#0 379647417#1 379647417#2 379647417#3 379647417#4 379647417#5 379647417#6 379647417#7 379647417#8 4713443#0 4713443#1 294060698 4564986#0 4564986#1 586660339#0 586660339#1 586660339#2 586660339#3 586660339#4 586660339#5 586660339#6 586660339#7 4555866#0 4555866#1 4555866#2 4555866#3 4555866#4 4555866#5 4555866#6 4555866#7 4555866#8 4555866#9 4555866#10 4555866#11 4555866#12 381387669#0 381387669#1 202877696#6 202877696#7 202877696#8 202877696#0 156965886#0 156965886#1 156965886#2 156965886#3 156965886#4 156965886#5 4533571#0 4533571#1 381387671#0 381387671#1 381387671#2 381387671#3 381387671#4 381387671#5 381387671#6 381387671#7 -381387671#7" />
    </vehicle>
    <vehicle id="PET_6" type="petrol" depart="6.00">
        <route edges="-1230731357 -133550892 -974849858 -1230731367 -1230731368 -144597766#3 -144597766#2 -144597766#1 -144597766#0 -1230731369#1 -1230731369#0 -1230731370 -1230731366 -1230731365#2 -1230731365#1 -1230731365#0 -144597764#2 -144597764#1 -144597764#0 -1321593441 -199095127#4 -199095127#3 -199095127#2 -199095127#1 -199095127#0 -180579432#9 -180579432#8 -180579432#7 -180579432#6 -180579432#5 -180579432#4 -180579432#3 -180579432#2 -180579432#1 -180579432#0 1223645399 1321596833 1223645397#0 1223645397#1 1223645397#2 1223965819 1223645394#0 1223645394#1 1223645394#2 -1223645392#1 -1223645392#0 6182158#0 6182158#1 6182158#2 6182158#3 6182158#4 6182158#5 6182158#6 6182158#7 6182158#8 6182158#9 6182158#10 6182158#11 6182158#12 6182158#13 6182158#14 6182158#15 1103797413 1103797412 -209250806#10 -209250806#9 -209250806#8 -209250806#7 -209250806#6 -209250806#5 -209250806#4 -209250806#3 -209250806#2 -209250806#1 -209250806#0 -1321593449#6 -1321593449#5 -1321593449#4 -1321593449#3 -1321593449#2 -1321593449#1 -1321593449#0 -1259067844#5 -1259067844#4 -1259067844#3 -1259067844#2 -1259067844#1 -1259067844#0 -1259067845#14 -1259067845#13 -1259067845#12 -1259067845#11 -1259067845#10 -1259067845#9 -1259067845#8 -1259067845#7 -1259067845#6 -1259067845#5 -1259067845#4 -1259067845#3 -1259067845#2 -1259067845#1 -1259067845#0 -2118#3 -2118#2 -2118#1 -2118#0 -28379982#4 -28379982#3 -28379982#2 -28379982#1 -28379982#0 -1259663806#1 -1259663806#0 -4764316#6 -4764316#5 -4764316#4 -4764316#3 -4764316#2 -4764316#1 -4764316#0 -1257547930 1257547934 4745226#0 4745226#1 4764321 69067221 1211272275#0 1211272275#1 1211272275#2 1211272275#3 4764308#0 4764308#1 69067210 736368178 736368179 69067217#0 69067217#1 69067217#2 69067217#3 69067217#4 69067217#5 69067217#6 69067217#7 69067217#8 69067217#9 69067217#10 69067217#11 69067217#12 69067217#13 69067217#14 4803159 185756883 205818724#0 205818724#1 69067205 69067225 4803181 1219330340 164087240#0 164087240#1 5204138#0 5204138#1 164087237#0 164087237#1 164087237#2 972410217#0 972410217#1 -331674956#2 -331674956#1 -331674956#0 -144176778#8 -144176778#7 -144176778#6 -144176778#5 -144176778#4 -144176778#3 -144176778#2 -144176778#1 -144176778#0 -4806323#9 -4806323#8 -4806323#7 -4806323#6 -4806323#5 -4806323#4 -4806323#3 -4806323#2 -4806323#1 -4806323#0 4483407#0 4483407#1 4483407#2 4483407#3 4483407#4 4483407#5 203910670#0 203910670#1 203910670#2 203910670#3 203910670#4 203910670#5 203910670#6 5203969#0 5203969#1 41483050 385315764 41483052#0 41483052#1 5203968#2 5203968#3 5203968#4 5203970#0 5203970#1 5203970#2 5203972 385344417 4995733 385344418 385315763 379647417#0 379647417#1 379647417#2 379647417#3 379647417#4 379647417#5 379647417#6 379647417#7 379647417#8 4713443#0 4713443#1 294060698 4564986#0 4564986#1 586660339#0 586660339#1 586660339#2 586660339#3 586660339#4 586660339#5 586660339#6 586660339#7 4555866#0 4555866#1 4555866#2 4555866#3 4555866#4 4555866#5 4555866#6 4555866#7 4555866#8 4555866#9 4555866#10 4555866#11 4555866#12 381387669#0 381387669#1 202877696#6 202877696#7 202877696#8 202877696#0 156965886#0 156965886#1 156965886#2 156965886#3 156965886#4 156965886#5 4533571#0 4533571#1 381387671#0 381387671#1 381387671#2 381387671#3 381387671#4 381387671#5 381387671#6 381387671#7 -381387671#7" />
    </vehicle>
    <vehicle id="EV_7" type="EV" depart="7.00">
        <route edges="24324817#1 24324817#2 24324817#3 1017629134 -1017629134 -24324817#3 -24324817#2 -24324817#1 -24324817#0 -1017629135#1 -1017629135#0 -24324818 -1017629136 -4570592#2 -4570592#1 -4570592#0 24325203#0 24325203#1 45490892 45490890#0 45490890#1 45490890#2 45490890#3 45490890#4 45490890#5 45490890#6 30878936 209282119#2 30878916 -30878902#6 -30878902#5 -30878902#4 -30878902#3 -30878902#2 -30878902#1 -30878902#0 -250475788#6 -250475788#5 30879516#0 30879516#1 30879516#2 30879516#3 30879516#4 30879516#5 209247056#0 209247056#1 209247056#2 209247056#3 209247055#0 -30879719#3 -30879719#2 -30879719#1 -30879719#0 209281126#1 209281126#2 209281126#3 209281126#4 -202753588#5 -202753588#4 -202753588#3 -202753588#2 -202753588#1 -202753588#0 30880031#0 30880031#1 30880088 30880087 6182168 166125740 30879991#0 30879991#1 30879991#2 30879991#3 30879991#4 -951318445 -369581050#5 -369581050#4 -369581050#3 -369581050#2 -369581050#1 -369581050#0 -369581049 -206594812#11 -206594812#10 -206594812#9 -206594812#8 -206594812#7 -206594812#6 -206594812#5 -206594812#4 -206594812#3 -206594812#2 -206594812#1 -206594812#0 -6182161#9 -6182161#8 -6182161#7 -6182161#6 -6182161#5 -6182161#4 -6182161#3 -6182161#2 -6182161#1 -6182161#0 -81083876#1 -81083876#0 -202753590#16 -202753590#15 -202753590#14 -202753590#13 -202753590#12 -202753590#11 -202753590#10 -202753590#9 -202753590#8 -202753590#7 -202753590#6 -202753590#5 -202753590#4 -202753590#3 -202753590#2 -202753590#1 -202753590#0 24317414#0 24317414#1 24317449#0 199094906" />
    </vehicle>
    <vehicle id="PET_7" type="petrol" depart="7.00">