<?xml version='1.0' encoding='utf-8'?>
<routes xmlns:xsi="http://www.w3.org/2001/XMLSchema-instance" xsi:noNamespaceSchemaLocation="http://sumo.dlr.de/xsd/routes_file.xsd">
    <vehicle id="EV_0" type="EV" depart="0.00">
        <route edges="24299893#0 24299893#1 24299893#2 24299893#3 24299893#4 24299893#5 120316916 -263438817#9 -263438817#8 -263438817#7 -263438817#6 -263438817#5 -263438817#4 -263438817#3 -263438817#2 -263438817#1 -263438817#0 -263438816 -4750216#3 -4750216#2 -4750216#1 -4750216#0 4750214#0 4750214#1 4750214#2 4750214#3 4750214#4 4750214#5 4750214#6 232836167#0 232836167#1 24300160#0 24300160#1 -4589100#3 -4589100#2 -4589100#1 -4589100#0 -4856735#4 -4856735#3 -4856735#2 -4856735#1 -4856735#0 -4567181 -431740498#11 -431740498#10 -431740498#9 -431740498#8 -431740498#7 -431740498#6 -431740498#5 -431740498#4 -431740498#3 -431740498#2 -431740498#1 -431740498#0 -4565330 4642285#0 4642285#1 4642285#2 4642285#3 4642285#4 33175470#0 33175470#1 33175470#2 33175470#3 33175470#4 47172045#0 47172045#1 47172044 4642284 33175469#0 33175469#1 33175469#2 45049552#0 45049552#1 45049552#2 45049552#3 368520678#0 368520678#1 164090947#0 164090947#1 164090947#2 4803254 4803257#0 4803257#1 4803260 15816853 39891126 4869276#1 4869276#2 41276784 4256320#0 4256320#1 4256318#0 4256318#1 4301076 4301075 4423343#0 4423343#1 4423343#2 26529841 90685422 1156202048 242646548 5730321 4281152 476938862 60929 1275406773 1275406774 1227437241 1227437239 49857980#0 49857980#1 147157031#0 147157031#1 147157031#2 2096 45075233#0 45075233#1 45075233#2 45075233#3 140570266#0 140570266#1 140570266#2 140570266#3 140570266#4 1330306719 1330306722#0 1330306722#1 1330306722#2 1330306722#3 1330306722#4 550250858 579672160 579672157#0 579672157#1 140570268#0 140570268#1 140570268#2 4281194 1362333360#0 1362333360#1 1362333360#2 171460637 598333086 144595493#0 144595493#1 203516659 895142386#0 895142386#1 895142386#2 895142386#3 203516664#0 203516664#1 203516664#2 144595499#0 144595499#1 144595499#2 144595499#3 688524360#0 688524360#1 688524360#2 688524360#3 688524360#4 4281195 1123876514#0 1123876514#1 1123876514#2 1123876515 2094#0 2094#1 2094#2 2094#3 2094#4 2094#5 2094#6 25420427#0 25420427#1 25420427#2 25420427#3 917104275#0 917104275#1 917104275#2 917104275#3 1308657803#0 1308657803#1 -1278375677" />
    <param key="actualBatteryCapacity" value="3659" /></vehicle>
    <vehicle id="PET_0" type="petrol" depart="2000.00">
        <route edges="24299893#0 24299893#1 24299893#2 24299893#3 24299893#4 24299893#5 120316916 -263438817#9 -263438817#8 -263438817#7 -263438817#6 -263438817#5 -263438817#4 -263438817#3 -263438817#2 -263438817#1 -263438817#0 -263438816 -4750216#3 -4750216#2 -4750216#1 -4750216#0 4750214#0 4750214#1 4750214#2 4750214#3 4750214#4 4750214#5 4750214#6 232836167#0 232836167#1 24300160#0 24300160#1 -4589100#3 -4589100#2 -4589100#1 -4589100#0 -4856735#4 -4856735#3 -4856735#2 -4856735#1 -4856735#0 -4567181 -431740498#11 -431740498#10 -431740498#9 -431740498#8 -431740498#7 -431740498#6 -431740498#5 -431740498#4 -431740498#3 -431740498#2 -431740498#1 -431740498#0 -4565330 4642285#0 4642285#1 4642285#2 4642285#3 4642285#4 33175470#0 33175470#1 33175470#2 33175470#3 33175470#4 47172045#0 47172045#1 47172044 4642284 33175469#0 33175469#1 33175469#2 45049552#0 45049552#1 45049552#2 45049552#3 368520678#0 368520678#1 164090947#0 164090947#1 164090947#2 4803254 4803257#0 4803257#1 4803260 15816853 39891126 4869276#1 4869276#2 41276784 4256320#0 4256320#1 4256318#0 4256318#1 4301076 4301075 4423343#0 4423343#1 4423343#2 26529841 90685422 1156202048 242646548 5730321 4281152 476938862 60929 1275406773 1275406774 1227437241 1227437239 49857980#0 49857980#1 147157031#0 147157031#1 147157031#2 2096 45075233#0 45075233#1 45075233#2 45075233#3 140570266#0 140570266#1 140570266#2 140570266#3 140570266#4 1330306719 1330306722#0 1330306722#1 1330306722#2 1330306722#3 1330306722#4 550250858 579672160 579672157#0 579672157#1 140570268#0 140570268#1 140570268#2 4281194 1362333360#0 1362333360#1 1362333360#2 171460637 598333086 144595493#0 144595493#1 203516659 895142386#0 895142386#1 895142386#2 895142386#3 203516664#0 203516664#1 203516664#2 144595499#0 144595499#1 144595499#2 144595499#3 688524360#0 688524360#1 688524360#2 688524360#3 688524360#4 4281195 1123876514#0 1123876514#1 1123876514#2 1123876515 2094#0 2094#1 2094#2 2094#3 2094#4 2094#5 2094#6 25420427#0 25420427#1 25420427#2 25420427#3 917104275#0 917104275#1 917104275#2 917104275#3 1308657803#0 1308657803#1 -1278375677" />
    </vehicle>
</routes>