<?xml version="1.0" encoding="UTF-8"?>

<!-- generated on 2025-07-16 19:10:24.393197 by randomTrips.py UNKNOWN
<configuration>
    <net-file value="data/map/glasgow_clean.net.xml"/>
    <output-trip-file value="sumo/dataset_1/S001/routes/S001_ev.trips.xml"/>
    <prefix value="EV_"/>
    <fringe-factor value="10"/>
    <validate value="True"/>
    <end value="10.0"/>
</configuration>
-->

<!-- generated on 2025-07-16 19:10:22 by Eclipse SUMO duarouter Version 1.18.0
<configuration xmlns:xsi="http://www.w3.org/2001/XMLSchema-instance" xsi:noNamespaceSchemaLocation="http://sumo.dlr.de/xsd/duarouterConfiguration.xsd">

    <input>
        <net-file value="data/map/glasgow_clean.net.xml"/>
        <route-files value="sumo/dataset_1/S001/routes/S001_ev.trips.xml"/>
    </input>

    <output>
        <output-file value="sumo/dataset_1/S001/routes/S001_ev.trips.xml.tmp"/>
        <alternatives-output value="NUL"/>
        <write-trips value="true"/>
    </output>

    <time>
        <begin value="0"/>
        <end value="10.0"/>
    </time>

    <report>
        <no-warnings value="true"/>
        <ignore-errors value="true"/>
        <no-step-log value="true"/>
    </report>

</configuration>
-->

<routes xmlns:xsi="http://www.w3.org/2001/XMLSchema-instance" xsi:noNamespaceSchemaLocation="http://sumo.dlr.de/xsd/routes_file.xsd">
    <trip id="EV_0" depart="0.00" from="24299893#0" to="-1278375677"/>
    <trip id="EV_1" depart="1.00" from="-389303151" to="-4475799#0"/>
    <trip id="EV_2" depart="2.00" from="421693884" to="28662102#1"/>
    <trip id="EV_3" depart="3.00" from="779826904" to="-21766336#0"/>
    <trip id="EV_4" depart="4.00" from="-80249131" to="-1304747142#4"/>
    <trip id="EV_5" depart="5.00" from="-30831885#1" to="144799286#1"/>
    <trip id="EV_6" depart="6.00" from="-1230731357" to="-381387671#7"/>
    <trip id="EV_7" depart="7.00" from="24324817#1" to="199094906"/>
    <trip id="EV_8" depart="8.00" from="-30831919" to="23340719#0"/>
    <trip id="EV_9" depart="9.00" from="5203878#1" to="-10903503#0"/>
</routes>
