<?xml version="1.0" encoding="UTF-8"?>

<!-- generated on 2025-08-03 02:52:26.297448 by randomTrips.py UNKNOWN
<configuration>
    <net-file value="data/map/glasgow_clean.net.xml"/>
    <output-trip-file value="sumo/dataset_1/S001/routes/S001_pet.trips.xml"/>
    <prefix value="PET_"/>
    <fringe-factor value="10"/>
    <begin value="2000.0"/>
    <end value="8000.0"/>
    <period value="8000.0"/>
</configuration>
-->

<routes xmlns:xsi="http://www.w3.org/2001/XMLSchema-instance" xsi:noNamespaceSchemaLocation="http://sumo.dlr.de/xsd/routes_file.xsd">
    <trip id="PET_0" depart="2000.00" from="24299893#0" to="-1278375677"/>
</routes>
