<?xml version="1.0" encoding="UTF-8"?>

<!-- generated on 2025-07-06 20:18:06.553921 by randomTrips.py UNKNOWN
<configuration>
    <net-file value="data/map/glasgow_clean.net.xml"/>
    <output-trip-file value="sumo/routes/S001_ev.trips.xml"/>
    <prefix value="EV_"/>
    <fringe-factor value="10"/>
    <validate value="True"/>
    <end value="2.0"/>
</configuration>
-->

<!-- generated on 2025-07-06 20:18:04 by Eclipse SUMO duarouter Version 1.18.0
<configuration xmlns:xsi="http://www.w3.org/2001/XMLSchema-instance" xsi:noNamespaceSchemaLocation="http://sumo.dlr.de/xsd/duarouterConfiguration.xsd">

    <input>
        <net-file value="data/map/glasgow_clean.net.xml"/>
        <route-files value="sumo/routes/S001_ev.trips.xml"/>
    </input>

    <output>
        <output-file value="sumo/routes/S001_ev.trips.xml.tmp"/>
        <alternatives-output value="NUL"/>
        <write-trips value="true"/>
    </output>

    <time>
        <begin value="0"/>
        <end value="2.0"/>
    </time>

    <report>
        <no-warnings value="true"/>
        <ignore-errors value="true"/>
        <no-step-log value="true"/>
    </report>

</configuration>
-->

<routes xmlns:xsi="http://www.w3.org/2001/XMLSchema-instance" xsi:noNamespaceSchemaLocation="http://sumo.dlr.de/xsd/routes_file.xsd">
    <trip id="EV_0" depart="0.00" from="24299893#0" to="-1278375677"/>
    <trip id="EV_1" depart="1.00" from="-389303151" to="-4475799#0"/>
</routes>
