<?xml version='1.0' encoding='utf-8'?>
<routes><trip id="EV_0" depart="0.00" from="24299893#0" to="-1278375677" type="EV" />
    <trip id="EV_1" depart="1.00" from="-389303151" to="-4475799#0" type="EV" />
<trip id="PET_0" depart="0.00" from="24299893#0" to="-1278375677" type="petrol" />
    <trip id="PET_1" depart="1.00" from="-389303151" to="-4475799#0" type="petrol" />
    <trip id="PET_2" depart="2.00" from="421693884" to="28662102#1" type="petrol" />
    <trip id="PET_3" depart="3.00" from="779826904" to="-21766336#0" type="petrol" />
    <trip id="PET_4" depart="4.00" from="-80249131" to="-1304747142#4" type="petrol" />
    <trip id="PET_5" depart="5.00" from="-30831885#1" to="144799286#1" type="petrol" />
    <trip id="PET_6" depart="6.00" from="-1230731357" to="-381387671#7" type="petrol" />
    <trip id="PET_7" depart="7.00" from="24324817#1" to="199094906" type="petrol" />
</routes>