<?xml version='1.0' encoding='utf-8'?>
<routes xmlns:xsi="http://www.w3.org/2001/XMLSchema-instance" xsi:noNamespaceSchemaLocation="http://sumo.dlr.de/xsd/routes_file.xsd">
    <trip id="0" depart="0.00" from="24299417#11" to="-1278215567" type="petrol" />
    <trip id="1" depart="1.00" from="-386496546#13" to="-4475215#5" type="petrol" />
    <trip id="2" depart="2.00" from="417726702#1" to="28662102#1" type="petrol" />
    <trip id="3" depart="3.00" from="781155028" to="-213265977" type="petrol" />
    <trip id="4" depart="4.00" from="-80239591#2" to="-1301868377#1" type="petrol" />
    <trip id="5" depart="5.00" from="-30727376" to="144597768#4" type="petrol" />
    <trip id="6" depart="6.00" from="-122719539#3" to="-380052509" type="petrol" />
    <trip id="7" depart="7.00" from="24324664#3" to="199094904" type="petrol" />
    <trip id="8" depart="8.00" from="-30831912#4" to="233432411#1" type="petrol" />
    <trip id="9" depart="9.00" from="5119268#2" to="-10903503#0" type="petrol" />
    <trip id="10" depart="10.00" from="4981561" to="30832110#1" type="petrol" />
    <trip id="11" depart="11.00" from="-49311707#1" to="-28265310" type="petrol" />
    <trip id="12" depart="12.00" from="82719293" to="-7665267#4" type="petrol" />
    <trip id="13" depart="13.00" from="-202876580#1" to="-22914348#9" type="petrol" />
    <trip id="14" depart="14.00" from="612591734#1" to="23844385#2" type="EV" />
    <trip id="15" depart="15.00" from="4995697#1" to="32533578#2" type="petrol" />
    <trip id="16" depart="16.00" from="1390757299" to="85145099#2" type="EV" />
    <trip id="17" depart="17.00" from="-61430175#1" to="203516657#1" type="petrol" />
    <trip id="18" depart="18.00" from="595322005#0" to="24289475#1" type="petrol" />
    <trip id="19" depart="19.00" from="65536947#11" to="226908749#1" type="petrol" />
    <trip id="20" depart="20.00" from="31107769#1" to="-15090981#5" type="petrol" />
    <trip id="21" depart="21.00" from="-30832152#1" to="-60296837#0" type="petrol" />
    <trip id="22" depart="22.00" from="-191124792#1" to="-45487151#0" type="petrol" />
    <trip id="23" depart="23.00" from="-20903494#2" to="-55988213#0" type="petrol" />
    <trip id="24" depart="24.00" from="24298568#0" to="-80503923#0" type="petrol" />
    <trip id="25" depart="25.00" from="-60677429#6" to="-425005544#0" type="petrol" />
    <trip id="26" depart="26.00" from="-36142194" to="80371221" type="petrol" />
    <trip id="27" depart="27.00" from="24317714#0" to="24246923#2" type="petrol" />
    <trip id="28" depart="28.00" from="-24317319" to="31546821#1" type="petrol" />
    <trip id="29" depart="29.00" from="-24299912#3" to="-81069399#0" type="petrol" />
    <trip id="30" depart="30.00" from="941141029#2" to="24317450#2" type="petrol" />
    <trip id="31" depart="31.00" from="167843870#7" to="29858903#1" type="petrol" />
    <trip id="32" depart="32.00" from="60931145#0" to="435793405" type="petrol" />
    <trip id="33" depart="33.00" from="-30832179#2" to="-1312650052" type="petrol" />
    <trip id="34" depart="34.00" from="-4574000#4" to="-521274637#2" type="petrol" />
    <trip id="35" depart="35.00" from="-29425424#3" to="80584699#0" type="petrol" />
    <trip id="36" depart="36.00" from="70264895" to="-695510186#0" type="petrol" />
    <trip id="37" depart="37.00" from="250478231#0" to="-82265059" type="petrol" />
    <trip id="38" depart="38.00" from="80367762#0" to="1151635221#0" type="petrol" />
    <trip id="39" depart="39.00" from="-355534468#2" to="-4681692#4" type="EV" />
    <trip id="40" depart="40.00" from="179177813#0" to="-50095293#1" type="petrol" />
    <trip id="41" depart="41.00" from="204731749#0" to="69067222#1" type="petrol" />
    <trip id="42" depart="42.00" from="-70264844#5" to="-4370720#3" type="EV" />
    <trip id="43" depart="43.00" from="990633026#3" to="149936141#1" type="petrol" />
    <trip id="44" depart="44.00" from="-202753991#6" to="-156818151#1" type="petrol" />
    <trip id="45" depart="45.00" from="-225018499#2" to="24299308#3" type="petrol" />
    <trip id="46" depart="46.00" from="4764318#2" to="-860824075#0" type="petrol" />
    <trip id="47" depart="47.00" from="-158371794#23" to="-81358039#6" type="petrol" />
    <trip id="48" depart="48.00" from="985107442#0" to="180365580#2" type="petrol" />
    <trip id="49" depart="49.00" from="833743727#0" to="58648676#3" type="petrol" />
    <trip id="50" depart="50.00" from="-1117949082" to="31092301" type="petrol" />
    <trip id="51" depart="51.00" from="294060697#2" to="191439135" type="petrol" />
    <trip id="52" depart="52.00" from="-36138979#3" to="24317489" type="petrol" />
    <trip id="53" depart="53.00" from="-225973795#1" to="-974091134#0" type="petrol" />
    <trip id="54" depart="54.00" from="-82720741#1" to="82055839#4" type="petrol" />
    <trip id="55" depart="55.00" from="70262855#0" to="-509430490#3" type="petrol" />
    <trip id="56" depart="56.00" from="11480925#0" to="-31000811#4" type="petrol" />
    <trip id="57" depart="57.00" from="80343142#0" to="60672869#5" type="petrol" />
    <trip id="58" depart="58.00" from="-4470844#2" to="24317427" type="petrol" />
    <trip id="59" depart="59.00" from="23113258" to="-28169331" type="EV" />
    <trip id="60" depart="60.00" from="45074756#0" to="192299135" type="petrol" />
    <trip id="61" depart="61.00" from="4584581#0" to="18099140#7" type="petrol" />
    <trip id="62" depart="62.00" from="-1008163186#4" to="-70263063#5" type="petrol" />
    <trip id="63" depart="63.00" from="-1181177737" to="80242019#1" type="petrol" />
    <trip id="64" depart="64.00" from="70266263" to="4904141#3" type="petrol" />
    <trip id="65" depart="65.00" from="-4548297#6" to="-180018688" type="petrol" />
    <trip id="66" depart="66.00" from="70266004#3" to="80962184#1" type="EV" />
    <trip id="67" depart="67.00" from="-19785210#2" to="1312321249#1" type="petrol" />
    <trip id="68" depart="68.00" from="-170485134#4" to="415336232" type="petrol" />
    <trip id="69" depart="69.00" from="45406895#0" to="-24316702#4" type="petrol" />
    <trip id="70" depart="70.00" from="-918082084#1" to="202753994#23" type="petrol" />
    <trip id="71" depart="71.00" from="-355538646#7" to="60931299#1" type="petrol" />
    <trip id="72" depart="72.00" from="-80249127" to="-43071663#0" type="petrol" />
    <trip id="73" depart="73.00" from="143725430#0" to="32533633#6" type="EV" />
    <trip id="74" depart="74.00" from="-28169952#1" to="-668785068#1" type="petrol" />
    <trip id="75" depart="75.00" from="976119817#0" to="24324724#1" type="petrol" />
    <trip id="76" depart="76.00" from="-8073902#0" to="159141893#3" type="petrol" />
    <trip id="77" depart="77.00" from="-23105663#1" to="-44785705#0" type="EV" />
    <trip id="78" depart="78.00" from="-4904314" to="23315010#0" type="petrol" />
    <trip id="79" depart="79.00" from="-30832202#0" to="-4381329" type="petrol" />
    <trip id="80" depart="80.00" from="-176982395#7" to="24300069#1" type="petrol" />
    <trip id="81" depart="81.00" from="-30832177" to="704950141#0" type="petrol" />
    <trip id="82" depart="82.00" from="63024879" to="-199097831#0" type="petrol" />
    <trip id="83" depart="83.00" from="-30726242#4" to="-24317531#1" type="petrol" />
    <trip id="84" depart="84.00" from="81069402" to="225017991" type="EV" />
    <trip id="85" depart="85.00" from="-9048029#4" to="4475800#2" type="petrol" />
    <trip id="86" depart="86.00" from="4995798#6" to="-33788798#0" type="petrol" />
    <trip id="87" depart="87.00" from="-206594813#4" to="-94484016#6" type="petrol" />
    <trip id="88" depart="88.00" from="-80249149#1" to="12083242#4" type="EV" />
    <trip id="89" depart="89.00" from="393282615" to="282178643" type="petrol" />
    <trip id="90" depart="90.00" from="892419623" to="-23149632#0" type="petrol" />
    <trip id="91" depart="91.00" from="-706219622#3" to="-78338494" type="EV" />
    <trip id="92" depart="92.00" from="65536947#0" to="-4713118#3" type="EV" />
    <trip id="93" depart="93.00" from="-255331043#8" to="1075430476#2" type="petrol" />
    <trip id="94" depart="94.00" from="-80239581#1" to="-56743638#0" type="EV" />
    <trip id="95" depart="95.00" from="-31092481#1" to="7984123" type="petrol" />
    <trip id="96" depart="96.00" from="-81634299#0" to="586848223#1" type="petrol" />
    <trip id="97" depart="97.00" from="157751809#7" to="-159051001#2" type="petrol" />
    <trip id="98" depart="98.00" from="996302105#1" to="49305061" type="petrol" />
    <trip id="99" depart="99.00" from="83016000#0" to="7997350#0" type="petrol" />
    <trip id="100" depart="100.00" from="61430168#0" to="-30727346" type="petrol" />
    <trip id="101" depart="101.00" from="-993803440" to="-4337099#1" type="petrol" />
    <trip id="102" depart="102.00" from="-704096621#2" to="-18096397#0" type="petrol" />
    <trip id="103" depart="103.00" from="-61430198#3" to="917104274#1" type="petrol" />
    <trip id="104" depart="104.00" from="-355557036#1" to="4475301#15" type="petrol" />
    <trip id="105" depart="105.00" from="-82729167#1" to="-8658188#7" type="EV" />
    <trip id="106" depart="106.00" from="82719300#1" to="9788339#7" type="petrol" />
    <trip id="107" depart="107.00" from="163418535#0" to="31092101#2" type="petrol" />
    <trip id="108" depart="108.00" from="-24298537#3" to="-61228891#0" type="petrol" />
    <trip id="109" depart="109.00" from="83015997#0" to="22731473#1" type="petrol" />
    <trip id="110" depart="110.00" from="144597768#4" to="380098110#0" type="petrol" />
    <trip id="111" depart="111.00" from="-149918614" to="23113257#1" type="EV" />
    <trip id="112" depart="112.00" from="115894396#1" to="54642157#3" type="petrol" />
    <trip id="113" depart="113.00" from="-24298893#6" to="82461133#1" type="petrol" />
    <trip id="114" depart="114.00" from="-191355424#0" to="-32906933#0" type="petrol" />
    <trip id="115" depart="115.00" from="209286646#1" to="28380024" type="petrol" />
    <trip id="116" depart="116.00" from="-30879212#2" to="-24275837#2" type="petrol" />
    <trip id="117" depart="117.00" from="763978419#2" to="-4677741#1" type="petrol" />
    <trip id="118" depart="118.00" from="209281892#0" to="24298463#1" type="petrol" />
    <trip id="119" depart="119.00" from="-7997166" to="23105663#1" type="petrol" />
    <trip id="120" depart="120.00" from="1290309652#0" to="80343133" type="petrol" />
    <trip id="121" depart="121.00" from="-28380024" to="31000828#10" type="petrol" />
    <trip id="122" depart="122.00" from="-30880127#1" to="-82265062" type="petrol" />
    <trip id="123" depart="123.00" from="28169325" to="-61430178#2" type="petrol" />
    <trip id="124" depart="124.00" from="-45773042#0" to="385978261#2" type="petrol" />
    <trip id="125" depart="125.00" from="-177951115" to="1150445679#1" type="petrol" />
    <trip id="126" depart="126.00" from="99495402#0" to="985107928" type="petrol" />
    <trip id="127" depart="127.00" from="-179683250" to="-4326994#2" type="petrol" />
    <trip id="128" depart="128.00" from="-355557036#1" to="80343082#13" type="petrol" />
    <trip id="129" depart="129.00" from="704950141#1" to="61430160#2" type="EV" />
    <trip id="130" depart="130.00" from="-60674432#1" to="-28451551#3" type="petrol" />
    <trip id="131" depart="131.00" from="598905006#6" to="30832227#2" type="petrol" />
    <trip id="132" depart="132.00" from="23275440#19" to="93212331#2" type="petrol" />
    <trip id="133" depart="133.00" from="24883105#6" to="-1115578697#0" type="petrol" />
    <trip id="134" depart="134.00" from="539642673#0" to="-61430170#4" type="petrol" />
    <trip id="135" depart="135.00" from="26235531#0" to="80503908#5" type="petrol" />
    <trip id="136" depart="136.00" from="-23803862" to="-24247209#0" type="petrol" />
    <trip id="137" depart="137.00" from="-218601545#8" to="203921913#0" type="petrol" />
    <trip id="138" depart="138.00" from="-37943328#9" to="23948627" type="petrol" />
    <trip id="139" depart="139.00" from="355559563#2" to="-39609737#1" type="petrol" />
    <trip id="140" depart="140.00" from="242773838#7" to="-510490891" type="petrol" />
    <trip id="141" depart="141.00" from="10111207#1" to="704097422#2" type="petrol" />
    <trip id="142" depart="142.00" from="61228593#3" to="-226297884#0" type="EV" />
    <trip id="143" depart="143.00" from="-80249149#1" to="-55686929#0" type="EV" />
    <trip id="144" depart="144.00" from="-10261428#1" to="4337102#1" type="petrol" />
    <trip id="145" depart="145.00" from="24298902#6" to="-49915219" type="petrol" />
    <trip id="146" depart="146.00" from="43071022#0" to="203157352" type="petrol" />
    <trip id="147" depart="147.00" from="-80343128#2" to="-114456728" type="petrol" />
    <trip id="148" depart="148.00" from="-18123657#2" to="61939890#0" type="EV" />
    <trip id="149" depart="149.00" from="80249134" to="199095127#1" type="petrol" />
    <trip id="150" depart="150.00" from="60065183#1" to="22954617" type="petrol" />
    <trip id="151" depart="151.00" from="-24275552#4" to="-24300062#0" type="petrol" />
    <trip id="152" depart="152.00" from="-4548377#8" to="699084523#5" type="petrol" />
    <trip id="153" depart="153.00" from="48463919#0" to="585960771#1" type="petrol" />
    <trip id="154" depart="154.00" from="7997160#7" to="-42784193" type="petrol" />
    <trip id="155" depart="155.00" from="-31092478#2" to="-23332502#2" type="petrol" />
    <trip id="156" depart="156.00" from="459623265#0" to="62060778" type="petrol" />
    <trip id="157" depart="157.00" from="-727993678#4" to="24298569#1" type="petrol" />
    <trip id="158" depart="158.00" from="-24298534#4" to="80249127" type="petrol" />
    <trip id="159" depart="159.00" from="687247369#1" to="8752502#1" type="petrol" />
    <trip id="160" depart="160.00" from="5203957#4" to="61430475#2" type="petrol" />
    <trip id="161" depart="161.00" from="-1218704424#0" to="34402932#3" type="petrol" />
    <trip id="162" depart="162.00" from="-48509939#1" to="8029053#0" type="petrol" />
    <trip id="163" depart="163.00" from="4904296#0" to="59860218#13" type="EV" />
    <trip id="164" depart="164.00" from="5203957#2" to="-521266279" type="petrol" />
    <trip id="165" depart="165.00" from="4713086#20" to="-23803753#1" type="petrol" />
    <trip id="166" depart="166.00" from="70260787#0" to="572486454#3" type="petrol" />
    <trip id="167" depart="167.00" from="-30831995#3" to="4713421#2" type="petrol" />
    <trip id="168" depart="168.00" from="-8329075#4" to="-62150197#0" type="petrol" />
    <trip id="169" depart="169.00" from="4839473#0" to="-45102225#1" type="petrol" />
    <trip id="170" depart="170.00" from="-1210449460#3" to="-349616230#0" type="petrol" />
    <trip id="171" depart="171.00" from="-47500097#4" to="59861104#1" type="petrol" />
    <trip id="172" depart="172.00" from="83015414#1" to="-56743795#2" type="petrol" />
    <trip id="173" depart="173.00" from="24300062#0" to="-82494357" type="petrol" />
    <trip id="174" depart="174.00" from="8752509#0" to="19119470#2" type="petrol" />
    <trip id="175" depart="175.00" from="81634267#0" to="-24246923#3" type="petrol" />
    <trip id="176" depart="176.00" from="83239774" to="-31000810#1" type="petrol" />
    <trip id="177" depart="177.00" from="82764446#0" to="-5204022#0" type="petrol" />
    <trip id="178" depart="178.00" from="-223994751#1" to="-9733965" type="petrol" />
    <trip id="179" depart="179.00" from="389802135#4" to="-679215622#0" type="petrol" />
    <trip id="180" depart="180.00" from="228097376#0" to="151120284#2" type="EV" />
    <trip id="181" depart="181.00" from="-62310523#2" to="226436047" type="petrol" />
    <trip id="182" depart="182.00" from="-31092832" to="30879398" type="petrol" />
    <trip id="183" depart="183.00" from="-10111720" to="7997160#5" type="petrol" />
    <trip id="184" depart="184.00" from="143603346#2" to="31092180" type="petrol" />
    <trip id="185" depart="185.00" from="43072323#0" to="27747884#5" type="petrol" />
    <trip id="186" depart="186.00" from="-60063948#2" to="-199094905#0" type="petrol" />
    <trip id="187" depart="187.00" from="26235645" to="-70732311#5" type="petrol" />
    <trip id="188" depart="188.00" from="-4570594#7" to="533484400#1" type="EV" />
    <trip id="189" depart="189.00" from="368523979" to="-61430197" type="EV" />
    <trip id="190" depart="190.00" from="-45492869" to="-82938048#1" type="petrol" />
    <trip id="191" depart="191.00" from="-705458517#1" to="-61012410#2" type="petrol" />
    <trip id="192" depart="192.00" from="-23605425" to="-85140704" type="petrol" />
    <trip id="193" depart="193.00" from="81634306#0" to="286782503#2" type="petrol" />
    <trip id="194" depart="194.00" from="80241991#1" to="24275694#1" type="petrol" />
    <trip id="195" depart="195.00" from="-4497320" to="202145444#1" type="petrol" />
    <trip id="196" depart="196.00" from="-1005597597" to="-60234922#4" type="petrol" />
    <trip id="197" depart="197.00" from="-80371223" to="227866036#3" type="petrol" />
    <trip id="198" depart="198.00" from="249123994#9" to="1193624586" type="EV" />
    <trip id="199" depart="199.00" from="-8149147#5" to="-4334684#0" type="petrol" />
    <trip id="200" depart="200.00" from="-9053223" to="70260571#2" type="petrol" />
    <trip id="201" depart="201.00" from="48463879" to="-30832168#0" type="petrol" />
    <trip id="202" depart="202.00" from="-196934179#6" to="157751811" type="petrol" />
    <trip id="203" depart="203.00" from="24275781" to="-754361306#1" type="petrol" />
    <trip id="204" depart="204.00" from="545557121#16" to="384765374#0" type="petrol" />
    <trip id="205" depart="205.00" from="28169966" to="-44785705#0" type="petrol" />
    <trip id="206" depart="206.00" from="-31092067" to="1251225277#5" type="petrol" />
    <trip id="207" depart="207.00" from="61430193" to="-202753592#3" type="petrol" />
    <trip id="208" depart="208.00" from="-780005878#1" to="24299944#13" type="petrol" />
    <trip id="209" depart="209.00" from="-25939661#3" to="30832064#2" type="petrol" />
    <trip id="210" depart="210.00" from="1082707200" to="-4628070#3" type="petrol" />
    <trip id="211" depart="211.00" from="25324873#4" to="-10750731#3" type="petrol" />
    <trip id="212" depart="212.00" from="4381316" to="4329331#3" type="petrol" />
    <trip id="213" depart="213.00" from="-217791169#1" to="-890046061#0" type="petrol" />
    <trip id="214" depart="214.00" from="-24317527#1" to="82209852#0" type="petrol" />
    <trip id="215" depart="215.00" from="1259067845#10" to="-158734896#4" type="petrol" />
    <trip id="216" depart="216.00" from="-31092429" to="533484406" type="petrol" />
    <trip id="217" depart="217.00" from="-82885383#0" to="4570595" type="petrol" />
    <trip id="218" depart="218.00" from="26923997#2" to="93752470" type="EV" />
    <trip id="219" depart="219.00" from="210112587" to="8149144#1" type="petrol" />
    <trip id="220" depart="220.00" from="774934103#0" to="24275499" type="petrol" />
    <trip id="221" depart="221.00" from="36142204#0" to="144595492#2" type="petrol" />
    <trip id="222" depart="222.00" from="598333085#0" to="201700815" type="petrol" />
    <trip id="223" depart="223.00" from="79871733" to="37132374#1" type="petrol" />
    <trip id="224" depart="224.00" from="-914127413#0" to="-49049428#0" type="petrol" />
    <trip id="225" depart="225.00" from="-31092286#1" to="24317364#1" type="petrol" />
    <trip id="226" depart="226.00" from="45406895#0" to="163419238#1" type="petrol" />
    <trip id="227" depart="227.00" from="24232508" to="-55383414" type="petrol" />
    <trip id="228" depart="228.00" from="-18543923#0" to="-60234209#0" type="petrol" />
    <trip id="229" depart="229.00" from="-377835506#8" to="-70260576" type="EV" />
    <trip id="230" depart="230.00" from="143769116#27" to="-24732686#4" type="petrol" />
    <trip id="231" depart="231.00" from="-30832226#2" to="30831985#0" type="petrol" />
    <trip id="232" depart="232.00" from="32874568" to="-191407081#7" type="petrol" />
    <trip id="233" depart="233.00" from="-731208271" to="19785213#0" type="petrol" />
    <trip id="234" depart="234.00" from="-78409771#0" to="-412542900#0" type="petrol" />
    <trip id="235" depart="235.00" from="-800766574#1" to="704096620#1" type="petrol" />
    <trip id="236" depart="236.00" from="204242830#4" to="30832050" type="EV" />
    <trip id="237" depart="237.00" from="62217338#0" to="42743148" type="petrol" />
    <trip id="238" depart="238.00" from="-61430596#3" to="-10750746#0" type="EV" />
    <trip id="239" depart="239.00" from="-539703831" to="389245737#2" type="petrol" />
    <trip id="240" depart="240.00" from="6182160#0" to="82021453#2" type="petrol" />
    <trip id="241" depart="241.00" from="-7997160#7" to="37802168#3" type="petrol" />
    <trip id="242" depart="242.00" from="15090981#10" to="23844253#7" type="petrol" />
    <trip id="243" depart="243.00" from="-30831912#5" to="-4371116#1" type="petrol" />
    <trip id="244" depart="244.00" from="-80584725#0" to="-129951466#0" type="petrol" />
    <trip id="245" depart="245.00" from="-4904141#3" to="28891834#1" type="petrol" />
    <trip id="246" depart="246.00" from="-724714033#4" to="-30726593#2" type="petrol" />
    <trip id="247" depart="247.00" from="-882615516#1" to="-24300065#4" type="petrol" />
    <trip id="248" depart="248.00" from="23817038#0" to="-128893530#0" type="petrol" />
    <trip id="249" depart="249.00" from="-689883508#1" to="209247055#4" type="petrol" />
    <trip id="250" depart="250.00" from="-1240136780#1" to="24317630" type="petrol" />
    <trip id="251" depart="251.00" from="-23816717#1" to="116765434" type="petrol" />
    <trip id="252" depart="252.00" from="-143606327#3" to="-81069373#0" type="petrol" />
    <trip id="253" depart="253.00" from="-29426077#1" to="-70266263" type="petrol" />
    <trip id="254" depart="254.00" from="45051111#0" to="-81069373#0" type="petrol" />
    <trip id="255" depart="255.00" from="4381341#1" to="4904150#2" type="petrol" />
    <trip id="256" depart="256.00" from="-31092549#4" to="-20903307#4" type="petrol" />
    <trip id="257" depart="257.00" from="-117383820#0" to="19230513#1" type="EV" />
    <trip id="258" depart="258.00" from="999684394#0" to="-80249147" type="petrol" />
    <trip id="259" depart="259.00" from="24324790#0" to="4411922#13" type="petrol" />
    <trip id="260" depart="260.00" from="246333732#5" to="389584479#2" type="petrol" />
    <trip id="261" depart="261.00" from="82209847#8" to="-38243694#0" type="petrol" />
    <trip id="262" depart="262.00" from="-1190182872#1" to="-28169067#0" type="petrol" />
    <trip id="263" depart="263.00" from="-233432411#1" to="27248046#2" type="petrol" />
    <trip id="264" depart="264.00" from="18134228#5" to="-43565429#2" type="petrol" />
    <trip id="265" depart="265.00" from="30881122#4" to="4296033#0" type="petrol" />
    <trip id="266" depart="266.00" from="-24316724#2" to="24246090#0" type="petrol" />
    <trip id="267" depart="267.00" from="43564894" to="-24246744#0" type="petrol" />
    <trip id="268" depart="268.00" from="54637678#0" to="82885377#2" type="petrol" />
    <trip id="269" depart="269.00" from="-223319811" to="-1279384406" type="petrol" />
    <trip id="270" depart="270.00" from="-4569958" to="286782504#0" type="petrol" />
    <trip id="271" depart="271.00" from="82720743#2" to="-8227650#3" type="petrol" />
    <trip id="272" depart="272.00" from="34402935#0" to="-203910670#8" type="petrol" />
    <trip id="273" depart="273.00" from="30832215#1" to="24299293#1" type="petrol" />
    <trip id="274" depart="274.00" from="-20904074#3" to="4337114#5" type="petrol" />
    <trip id="275" depart="275.00" from="61430306#0" to="23817014#3" type="EV" />
    <trip id="276" depart="276.00" from="-23105663#1" to="9053229#6" type="petrol" />
    <trip id="277" depart="277.00" from="4644902#4" to="-80239581#0" type="EV" />
    <trip id="278" depart="278.00" from="-80343139#4" to="-80584681" type="petrol" />
    <trip id="279" depart="279.00" from="118225893" to="-78795715#0" type="petrol" />
    <trip id="280" depart="280.00" from="61430178#6" to="477869689#12" type="EV" />
    <trip id="281" depart="281.00" from="-209286642" to="82461133#2" type="EV" />
    <trip id="282" depart="282.00" from="24298542#1" to="485945093#3" type="petrol" />
    <trip id="283" depart="283.00" from="32906914" to="-9788339#4" type="petrol" />
    <trip id="284" depart="284.00" from="412177235#4" to="82939576#1" type="petrol" />
    <trip id="285" depart="285.00" from="-374489533#3" to="4627829#0" type="petrol" />
    <trip id="286" depart="286.00" from="14103691#2" to="129775090#1" type="petrol" />
    <trip id="287" depart="287.00" from="-80584689#1" to="32880965#3" type="petrol" />
    <trip id="288" depart="288.00" from="-37132374#1" to="54579332" type="petrol" />
    <trip id="289" depart="289.00" from="598335912" to="-2118#0" type="petrol" />
    <trip id="290" depart="290.00" from="-85363134#0" to="24247538#0" type="petrol" />
    <trip id="291" depart="291.00" from="-61430198#3" to="-1293701454#4" type="petrol" />
    <trip id="292" depart="292.00" from="61430375#0" to="-31092494#0" type="EV" />
    <trip id="293" depart="293.00" from="-29426093#1" to="45569652" type="petrol" />
    <trip id="294" depart="294.00" from="-493901794#3" to="61430198#1" type="petrol" />
    <trip id="295" depart="295.00" from="31092083#1" to="-55686620#0" type="petrol" />
    <trip id="296" depart="296.00" from="-1101902470#1" to="81069456#0" type="petrol" />
    <trip id="297" depart="297.00" from="-19785210#2" to="31092285" type="petrol" />
    <trip id="298" depart="298.00" from="10111713#10" to="408212594" type="EV" />
    <trip id="299" depart="299.00" from="30832215#1" to="24317820" type="petrol" />
    <trip id="300" depart="300.00" from="1028703007" to="45406895#1" type="petrol" />
    <trip id="301" depart="301.00" from="-203154249#0" to="-4411907#2" type="petrol" />
    <trip id="302" depart="302.00" from="30832425#9" to="-62150471#0" type="petrol" />
    <trip id="303" depart="303.00" from="202876594#1" to="1247003612" type="petrol" />
    <trip id="304" depart="304.00" from="132741010#0" to="-890905311#2" type="EV" />
    <trip id="305" depart="305.00" from="4344904#5" to="-71599869" type="petrol" />
    <trip id="306" depart="306.00" from="31092478#0" to="-539642674" type="petrol" />
    <trip id="307" depart="307.00" from="-31092516#5" to="-242773843#1" type="petrol" />
    <trip id="308" depart="308.00" from="-25637149" to="-24275807#3" type="petrol" />
    <trip id="309" depart="309.00" from="1390586286" to="41863460#2" type="petrol" />
    <trip id="310" depart="310.00" from="-24325214#5" to="-434979139#2" type="petrol" />
    <trip id="311" depart="311.00" from="-985355795#0" to="31092531" type="petrol" />
    <trip id="312" depart="312.00" from="85137362" to="17234452#9" type="petrol" />
    <trip id="313" depart="313.00" from="-422667700" to="-23275440#21" type="petrol" />
    <trip id="314" depart="314.00" from="-25844919" to="-45075231#0" type="petrol" />
    <trip id="315" depart="315.00" from="-24317759#3" to="-1181177962#2" type="petrol" />
    <trip id="316" depart="316.00" from="1367201936#0" to="-55382481#0" type="petrol" />
    <trip id="317" depart="317.00" from="8432076" to="203932822#0" type="EV" />
    <trip id="318" depart="318.00" from="30880234#0" to="-24299907#0" type="petrol" />
    <trip id="319" depart="319.00" from="70260054#2" to="1334239535#1" type="petrol" />
    <trip id="320" depart="320.00" from="70260801#0" to="225995499#1" type="petrol" />
    <trip id="321" depart="321.00" from="-890778745#2" to="10111713#6" type="petrol" />
    <trip id="322" depart="322.00" from="-24324817#3" to="-16199721#0" type="petrol" />
    <trip id="323" depart="323.00" from="81634320#1" to="1275333061" type="petrol" />
    <trip id="324" depart="324.00" from="-18096394#4" to="24299920#0" type="EV" />
    <trip id="325" depart="325.00" from="-144597758#6" to="-26412122#9" type="petrol" />
    <trip id="326" depart="326.00" from="18096401#0" to="-6182158#8" type="petrol" />
    <trip id="327" depart="327.00" from="972410215" to="-24275611#0" type="petrol" />
    <trip id="328" depart="328.00" from="45359877#1" to="24232504#1" type="petrol" />
    <trip id="329" depart="329.00" from="47500097#2" to="-4494913#11" type="petrol" />
    <trip id="330" depart="330.00" from="1289114675#0" to="1102484467#10" type="petrol" />
    <trip id="331" depart="331.00" from="-81634256" to="585960760#2" type="petrol" />
    <trip id="332" depart="332.00" from="943366871#2" to="-62150245#6" type="petrol" />
    <trip id="333" depart="333.00" from="23816633" to="24247397#1" type="petrol" />
    <trip id="334" depart="334.00" from="429148593#0" to="8104392#3" type="petrol" />
    <trip id="335" depart="335.00" from="-28891834#3" to="-43070120#0" type="petrol" />
    <trip id="336" depart="336.00" from="25939659#0" to="-283774074" type="petrol" />
    <trip id="337" depart="337.00" from="-24317439" to="-203157353" type="petrol" />
    <trip id="338" depart="338.00" from="-102000576#3" to="1102484467#1" type="petrol" />
    <trip id="339" depart="339.00" from="209250806#3" to="-606725288#5" type="petrol" />
    <trip id="340" depart="340.00" from="-30832233#1" to="30879049#1" type="petrol" />
    <trip id="341" depart="341.00" from="31092494#0" to="11340950#1" type="petrol" />
    <trip id="342" depart="342.00" from="30831925" to="7996764" type="petrol" />
    <trip id="343" depart="343.00" from="4713118#0" to="24299124" type="petrol" />